goiania_leste_dss/TR2/CTMT_5002228.dss
! ==============================================================================
! ALIMENTADOR CTMT_5002228 - GOIANIA LESTE-13
! Subestacao: Trafo TR2 (GOL-S-TRF-TR2) | Barra MT: 4629 -> PAC_INI: 84804495002228
! ==============================================================================

! 1. Disjuntor de Saida MT do Alimentador
new line.DJ_5002228 phases=3 bus1=4629 bus2=84804495002228 switch=y r1=1e-4 x1=1e-4 length=0.001 units=km

! 2. Linhas de Media Tensao (MT)
new line.53143358 phases=3 bus1=82574205002228.1.2.3 bus2=82571345002228.1.2.3 r1=0.975 x1=0.47 length=0.013293 units=km normamps=152.0
new line.53143359 phases=3 bus1=82574215002228.1.2.3 bus2=82574205002228B.1.2.3 r1=0.975 x1=0.47 length=0.029102 units=km normamps=152.0
new line.53143360 phases=3 bus1=82574225002228.1.2.3 bus2=82574215002228.1.2.3 r1=0.975 x1=0.47 length=0.030074 units=km normamps=152.0
new line.53143361 phases=3 bus1=82574245002228.1.2.3 bus2=82574225002228.1.2.3 r1=0.975 x1=0.47 length=0.036859 units=km normamps=152.0
new line.53143362 phases=3 bus1=82574255002228.1.2.3 bus2=82574245002228.1.2.3 r1=0.975 x1=0.47 length=0.026035 units=km normamps=152.0
new line.53143363 phases=3 bus1=82572955002228.1.2.3 bus2=82572945002228.1.2.3 r1=0.975 x1=0.47 length=0.021955 units=km normamps=152.0
new line.53143364 phases=3 bus1=82572965002228.1.2.3 bus2=82572955002228.1.2.3 r1=0.975 x1=0.47 length=0.02843 units=km normamps=152.0
new line.53143365 phases=3 bus1=82572975002228.1.2.3 bus2=82572965002228.1.2.3 r1=0.975 x1=0.47 length=0.02807 units=km normamps=152.0
new line.53143366 phases=3 bus1=82572995002228.1.2.3 bus2=82572975002228.1.2.3 r1=0.975 x1=0.47 length=0.030914 units=km normamps=152.0
new line.53143367 phases=3 bus1=82573005002228.1.2.3 bus2=82572995002228.1.2.3 r1=0.975 x1=0.47 length=0.030074 units=km normamps=152.0
new line.53143381 phases=3 bus1=82568745002228.1.2.3 bus2=82569815002228.1.2.3 r1=0.975 x1=0.47 length=0.010959 units=km normamps=152.0
new line.53143382 phases=3 bus1=82568745002228.1.2.3 bus2=82569805002228.1.2.3 r1=0.236 x1=0.27 length=0.039562 units=km normamps=456.0
new line.53143416 phases=3 bus1=82568635002228.1.2.3 bus2=82568625002228.1.2.3 r1=0.236 x1=0.27 length=0.049301 units=km normamps=456.0
new line.53143417 phases=3 bus1=82568645002228.1.2.3 bus2=82568635002228.1.2.3 r1=0.236 x1=0.27 length=0.055443 units=km normamps=456.0
new line.53143418 phases=3 bus1=82568665002228.1.2.3 bus2=82568645002228.1.2.3 r1=0.236 x1=0.27 length=0.047314 units=km normamps=456.0
new line.53143419 phases=3 bus1=82568675002228.1.2.3 bus2=82568665002228.1.2.3 r1=0.236 x1=0.27 length=0.036826 units=km normamps=456.0
new line.53143420 phases=3 bus1=82568685002228.1.2.3 bus2=82568675002228.1.2.3 r1=0.236 x1=0.27 length=0.068959 units=km normamps=456.0
new line.53143421 phases=3 bus1=82568695002228.1.2.3 bus2=82568685002228.1.2.3 r1=0.236 x1=0.27 length=0.031957 units=km normamps=456.0
new line.53143422 phases=3 bus1=82568705002228.1.2.3 bus2=82568695002228B.1.2.3 r1=0.975 x1=0.47 length=0.015857 units=km normamps=152.0
new line.53143423 phases=3 bus1=82568715002228.1.2.3 bus2=82568705002228.1.2.3 r1=0.975 x1=0.47 length=0.009009 units=km normamps=152.0
new line.53143425 phases=3 bus1=82568735002228.1.2.3 bus2=82568725002228.1.2.3 r1=0.236 x1=0.27 length=0.032421 units=km normamps=456.0
new line.53143426 phases=3 bus1=82568745002228.1.2.3 bus2=82568735002228.1.2.3 r1=0.236 x1=0.27 length=0.058342 units=km normamps=456.0
new line.53143458 phases=3 bus1=82569455002228.1.2.3 bus2=82569445002228.1.2.3 r1=0.975 x1=0.46 length=0.036609 units=km normamps=160.0
new line.53143459 phases=3 bus1=82569455002228.1.2.3 bus2=82570675002228.1.2.3 r1=0.975 x1=0.46 length=0.036854 units=km normamps=160.0
new line.53143460 phases=3 bus1=82570675002228.1.2.3 bus2=82570685002228.1.2.3 r1=0.975 x1=0.46 length=0.057672 units=km normamps=160.0
new line.53143461 phases=3 bus1=82570695002228.1.2.3 bus2=82570685002228.1.2.3 r1=0.975 x1=0.46 length=0.007158 units=km normamps=160.0
new line.53143475 phases=3 bus1=82569485002228.1.2.3 bus2=82569475002228.1.2.3 r1=1.551 x1=0.49 length=0.040552 units=km normamps=114.0
new line.53143476 phases=3 bus1=82569495002228.1.2.3 bus2=82569485002228.1.2.3 r1=1.551 x1=0.49 length=0.031762 units=km normamps=114.0
new line.53143477 phases=3 bus1=82569495002228.1.2.3 bus2=82569505002228.1.2.3 r1=1.551 x1=0.49 length=0.042821 units=km normamps=114.0
new line.53143478 phases=3 bus1=82569505002228.1.2.3 bus2=82569515002228.1.2.3 r1=1.551 x1=0.49 length=0.039704 units=km normamps=114.0
new line.53143479 phases=3 bus1=82569525002228.1.2.3 bus2=82569515002228.1.2.3 r1=1.551 x1=0.49 length=0.007993 units=km normamps=114.0
new line.53143506 phases=3 bus1=82569795002228.1.2.3 bus2=82569785002228.1.2.3 r1=0.236 x1=0.27 length=0.073205 units=km normamps=456.0
new line.53143507 phases=3 bus1=82569805002228.1.2.3 bus2=82569795002228.1.2.3 r1=0.236 x1=0.27 length=0.0662 units=km normamps=456.0
new line.53143513 phases=3 bus1=80435435002228.1.2.3 bus2=80435425002228.1.2.3 r1=0.188 x1=0.26 length=0.05376 units=km normamps=525.0
new line.53143514 phases=3 bus1=80435425002228.1.2.3 bus2=80435415002228.1.2.3 r1=0.188 x1=0.26 length=0.024583 units=km normamps=525.0
new line.53143515 phases=3 bus1=80435415002228.1.2.3 bus2=81755415002228.1.2.3 r1=0.188 x1=0.26 length=0.022332 units=km normamps=525.0
new line.53143516 phases=3 bus1=81755415002228.1.2.3 bus2=81755405002228.1.2.3 r1=0.188 x1=0.26 length=0.025287 units=km normamps=525.0
new line.53143517 phases=3 bus1=81755405002228.1.2.3 bus2=81755425002228.1.2.3 r1=0.188 x1=0.26 length=0.046626 units=km normamps=525.0
new line.53143520 phases=3 bus1=82579055002228.1.2.3 bus2=82577545002228.1.2.3 r1=0.613 x1=0.45 length=0.020451 units=km normamps=203.0
new line.53143521 phases=3 bus1=82577545002228.1.2.3 bus2=82579045002228.1.2.3 r1=0.613 x1=0.45 length=0.007231 units=km normamps=203.0
new line.53143522 phases=3 bus1=82579045002228.1.2.3 bus2=82579035002228.1.2.3 r1=0.613 x1=0.45 length=0.029672 units=km normamps=203.0
new line.53143584 phases=3 bus1=82573015002228.1.2.3 bus2=82573005002228.1.2.3 r1=1.551 x1=0.49 length=0.028078 units=km normamps=114.0
new line.53143585 phases=3 bus1=82573035002228.1.2.3 bus2=82573015002228.1.2.3 r1=1.551 x1=0.49 length=0.038033 units=km normamps=114.0
new line.53143586 phases=3 bus1=82572945002228.1.2.3 bus2=82571075002228.1.2.3 r1=0.975 x1=0.47 length=0.050546 units=km normamps=152.0
new line.53143587 phases=3 bus1=82571325002228.1.2.3 bus2=82571315002228.1.2.3 r1=1.551 x1=0.49 length=0.033173 units=km normamps=114.0
new line.53143588 phases=3 bus1=82571315002228.1.2.3 bus2=82571305002228.1.2.3 r1=1.551 x1=0.49 length=0.029066 units=km normamps=114.0
new line.53143589 phases=3 bus1=82571305002228.1.2.3 bus2=82571285002228.1.2.3 r1=1.551 x1=0.49 length=0.037445 units=km normamps=114.0
new line.53143590 phases=3 bus1=82571285002228.1.2.3 bus2=82573035002228.1.2.3 r1=1.551 x1=0.49 length=0.047661 units=km normamps=114.0
new line.53143591 phases=3 bus1=82571335002228.1.2.3 bus2=82571325002228.1.2.3 r1=1.551 x1=0.49 length=0.032336 units=km normamps=114.0
new line.53143592 phases=3 bus1=82571345002228.1.2.3 bus2=82571335002228.1.2.3 r1=1.551 x1=0.49 length=0.025317 units=km normamps=114.0
new line.53143593 phases=3 bus1=82571355002228.1.2.3 bus2=82571345002228.1.2.3 r1=1.551 x1=0.49 length=0.018091 units=km normamps=114.0
new line.53143594 phases=3 bus1=82571365002228.1.2.3 bus2=82571355002228.1.2.3 r1=1.551 x1=0.49 length=0.036876 units=km normamps=114.0
new line.53143595 phases=3 bus1=82571375002228.1.2.3 bus2=82571365002228.1.2.3 r1=1.551 x1=0.49 length=0.037619 units=km normamps=114.0
new line.53143596 phases=3 bus1=82571385002228.1.2.3 bus2=82571375002228.1.2.3 r1=1.551 x1=0.49 length=0.039045 units=km normamps=114.0
new line.53143597 phases=3 bus1=82571405002228.1.2.3 bus2=82571395002228.1.2.3 r1=0.195 x1=0.4 length=0.038376 units=km normamps=419.0
new line.53143598 phases=3 bus1=82571435002228.1.2.3 bus2=82571405002228.1.2.3 r1=0.195 x1=0.4 length=0.037627 units=km normamps=419.0
new line.53143599 phases=3 bus1=82571445002228.1.2.3 bus2=82571435002228.1.2.3 r1=0.195 x1=0.4 length=0.02313 units=km normamps=419.0
new line.53143600 phases=3 bus1=82573145002228.1.2.3 bus2=82571445002228.1.2.3 r1=0.195 x1=0.4 length=0.020297 units=km normamps=419.0
new line.53143601 phases=3 bus1=82573155002228.1.2.3 bus2=82573145002228.1.2.3 r1=0.195 x1=0.4 length=0.020245 units=km normamps=419.0
new line.53143602 phases=3 bus1=82573165002228.1.2.3 bus2=82573155002228.1.2.3 r1=0.975 x1=0.47 length=0.008502 units=km normamps=152.0
new line.53143603 phases=3 bus1=82573175002228.1.2.3 bus2=82573155002228.1.2.3 r1=0.195 x1=0.4 length=0.015194 units=km normamps=419.0
new line.53143604 phases=3 bus1=82573185002228.1.2.3 bus2=82573175002228.1.2.3 r1=0.195 x1=0.4 length=0.032545 units=km normamps=419.0
new line.53143605 phases=3 bus1=82573195002228.1.2.3 bus2=82573185002228.1.2.3 r1=0.195 x1=0.4 length=0.030403 units=km normamps=419.0
new line.53143606 phases=3 bus1=82573205002228.1.2.3 bus2=82573195002228.1.2.3 r1=0.195 x1=0.4 length=0.037984 units=km normamps=419.0
new line.53143607 phases=3 bus1=82573215002228.1.2.3 bus2=82573205002228B.1.2.3 r1=1.551 x1=0.49 length=0.019543 units=km normamps=114.0
new line.53143620 phases=3 bus1=82573225002228.1.2.3 bus2=82573205002228.1.2.3 r1=0.195 x1=0.4 length=0.030917 units=km normamps=419.0
new line.53143621 phases=3 bus1=82573235002228.1.2.3 bus2=82573225002228.1.2.3 r1=0.195 x1=0.4 length=0.040283 units=km normamps=419.0
new line.53143622 phases=3 bus1=82573245002228.1.2.3 bus2=82573235002228.1.2.3 r1=0.195 x1=0.4 length=0.037445 units=km normamps=419.0
new line.53143623 phases=3 bus1=82573255002228.1.2.3 bus2=82573245002228.1.2.3 r1=0.195 x1=0.4 length=0.040555 units=km normamps=419.0
new line.53143624 phases=3 bus1=82573265002228.1.2.3 bus2=82573255002228.1.2.3 r1=0.195 x1=0.4 length=0.036022 units=km normamps=419.0
new line.53143625 phases=3 bus1=82573285002228.1.2.3 bus2=82573265002228.1.2.3 r1=0.195 x1=0.4 length=0.037165 units=km normamps=419.0
new line.53143626 phases=3 bus1=82573295002228.1.2.3 bus2=82573285002228.1.2.3 r1=0.195 x1=0.4 length=0.041725 units=km normamps=419.0
new line.53143627 phases=3 bus1=82573365002228.1.2.3 bus2=82573345002228.1.2.3 r1=0.975 x1=0.47 length=0.030345 units=km normamps=152.0
new line.53143628 phases=3 bus1=82573395002228.1.2.3 bus2=82573365002228.1.2.3 r1=0.975 x1=0.47 length=0.045661 units=km normamps=152.0
new line.53143629 phases=3 bus1=82573245002228B.1.2.3 bus2=82573395002228.1.2.3 r1=0.975 x1=0.47 length=0.020553 units=km normamps=152.0
new line.53143630 phases=3 bus1=82573535002228B.1.2.3 bus2=82573525002228.1.2.3 r1=0.975 x1=0.47 length=0.034053 units=km normamps=152.0
new line.53143631 phases=3 bus1=82573155002228.1.2.3 bus2=82573535002228.1.2.3 r1=0.975 x1=0.47 length=0.031501 units=km normamps=152.0
new line.53143632 phases=3 bus1=82573545002228.1.2.3 bus2=82573525002228.1.2.3 r1=0.975 x1=0.47 length=0.047809 units=km normamps=152.0
new line.53143633 phases=3 bus1=82573555002228.1.2.3 bus2=82573545002228.1.2.3 r1=0.975 x1=0.47 length=0.011458 units=km normamps=152.0
new line.53143634 phases=3 bus1=82571345002228.1.2.3 bus2=82573665002228.1.2.3 r1=0.975 x1=0.47 length=0.029931 units=km normamps=152.0
new line.53143635 phases=3 bus1=82573905002228.1.2.3 bus2=82573895002228.1.2.3 r1=0.975 x1=0.47 length=0.011925 units=km normamps=152.0
new line.53143636 phases=3 bus1=82573915002228.1.2.3 bus2=82573905002228.1.2.3 r1=0.975 x1=0.47 length=0.037488 units=km normamps=152.0
new line.53143637 phases=3 bus1=82573895002228.1.2.3 bus2=82573885002228.1.2.3 r1=0.975 x1=0.47 length=0.017593 units=km normamps=152.0
new line.53143638 phases=3 bus1=82573885002228.1.2.3 bus2=82573875002228.1.2.3 r1=0.975 x1=0.47 length=0.027228 units=km normamps=152.0
new line.53143639 phases=3 bus1=82573875002228.1.2.3 bus2=82573345002228.1.2.3 r1=0.975 x1=0.47 length=0.030906 units=km normamps=152.0
new line.53143640 phases=3 bus1=82573925002228.1.2.3 bus2=82573895002228.1.2.3 r1=0.975 x1=0.47 length=0.012356 units=km normamps=152.0
new line.53143641 phases=3 bus1=82573935002228.1.2.3 bus2=82573895002228.1.2.3 r1=0.975 x1=0.47 length=0.018887 units=km normamps=152.0
new line.53143642 phases=3 bus1=82573995002228.1.2.3 bus2=82573965002228.1.2.3 r1=0.975 x1=0.47 length=0.025625 units=km normamps=152.0
new line.53143643 phases=3 bus1=82573965002228.1.2.3 bus2=82573925002228.1.2.3 r1=0.975 x1=0.47 length=0.027438 units=km normamps=152.0
new line.53143644 phases=3 bus1=82574005002228.1.2.3 bus2=82574015002228.1.2.3 r1=0.975 x1=0.47 length=0.018503 units=km normamps=152.0
new line.53143645 phases=3 bus1=82574015002228.1.2.3 bus2=82573995002228.1.2.3 r1=0.975 x1=0.47 length=0.008244 units=km normamps=152.0
new line.53143646 phases=3 bus1=82574035002228.1.2.3 bus2=82574015002228.1.2.3 r1=0.975 x1=0.47 length=0.01192 units=km normamps=152.0
new line.53143647 phases=3 bus1=82574045002228.1.2.3 bus2=82574035002228.1.2.3 r1=0.975 x1=0.47 length=0.028698 units=km normamps=152.0
new line.53143648 phases=3 bus1=82574055002228.1.2.3 bus2=82574015002228.1.2.3 r1=0.975 x1=0.47 length=0.022569 units=km normamps=152.0
new line.53143649 phases=3 bus1=82576815002228B.1.2.3 bus2=82576825002228.1.2.3 r1=0.975 x1=0.47 length=0.034467 units=km normamps=152.0
new line.53143650 phases=3 bus1=82576885002228.1.2.3 bus2=82576905002228B.1.2.3 r1=0.975 x1=0.47 length=0.033985 units=km normamps=152.0
new line.53143651 phases=3 bus1=82576905002228.1.2.3 bus2=82576915002228.1.2.3 r1=0.195 x1=0.4 length=0.036939 units=km normamps=419.0
new line.53143652 phases=3 bus1=82576925002228.1.2.3 bus2=82576915002228.1.2.3 r1=0.195 x1=0.4 length=0.011821 units=km normamps=419.0
new line.53143653 phases=3 bus1=82576915002228.1.2.3 bus2=82576965002228.1.2.3 r1=0.195 x1=0.4 length=0.040102 units=km normamps=419.0
new line.53143654 phases=3 bus1=82576965002228.1.2.3 bus2=82576975002228.1.2.3 r1=0.195 x1=0.4 length=0.020142 units=km normamps=419.0
new line.53143655 phases=3 bus1=82576975002228.1.2.3 bus2=82576985002228.1.2.3 r1=0.195 x1=0.4 length=0.035246 units=km normamps=419.0
new line.53143656 phases=3 bus1=82576985002228.1.2.3 bus2=82576995002228.1.2.3 r1=0.195 x1=0.4 length=0.039072 units=km normamps=419.0
new line.53143657 phases=3 bus1=82576995002228.1.2.3 bus2=82577015002228.1.2.3 r1=0.195 x1=0.4 length=0.034297 units=km normamps=419.0
new line.53143658 phases=3 bus1=82577015002228.1.2.3 bus2=82575385002228.1.2.3 r1=0.195 x1=0.4 length=0.013293 units=km normamps=419.0
new line.53143659 phases=3 bus1=82581075002228.1.2.3 bus2=82578415002228.1.2.3 r1=0.195 x1=0.4 length=0.076674 units=km normamps=419.0
new line.53143660 phases=3 bus1=82578425002228.1.2.3 bus2=82578415002228.1.2.3 r1=0.195 x1=0.4 length=0.014591 units=km normamps=419.0
new line.53143662 phases=3 bus1=82578445002228.1.2.3 bus2=82578435002228.1.2.3 r1=0.195 x1=0.4 length=0.011513 units=km normamps=419.0
new line.53143663 phases=3 bus1=82578435002228.1.2.3 bus2=82578485002228.1.2.3 r1=0.195 x1=0.4 length=0.04223 units=km normamps=419.0
new line.53143664 phases=3 bus1=82578485002228.1.2.3 bus2=82578495002228.1.2.3 r1=0.195 x1=0.4 length=0.040244 units=km normamps=419.0
new line.53143665 phases=3 bus1=82578515002228.1.2.3 bus2=82578505002228.1.2.3 r1=0.195 x1=0.4 length=0.031567 units=km normamps=419.0
new line.53143666 phases=3 bus1=82578525002228.1.2.3 bus2=82578515002228.1.2.3 r1=0.195 x1=0.4 length=0.033806 units=km normamps=419.0
new line.53143667 phases=3 bus1=82578535002228.1.2.3 bus2=82578525002228.1.2.3 r1=0.195 x1=0.4 length=0.043096 units=km normamps=419.0
new line.53143668 phases=3 bus1=82581085002228.1.2.3 bus2=82578535002228.1.2.3 r1=0.195 x1=0.4 length=0.011138 units=km normamps=419.0
new line.53143669 phases=3 bus1=82581095002228.1.2.3 bus2=82578535002228.1.2.3 r1=0.195 x1=0.4 length=0.049093 units=km normamps=419.0
new line.53143670 phases=3 bus1=82581105002228.1.2.3 bus2=82581095002228.1.2.3 r1=0.195 x1=0.4 length=0.038952 units=km normamps=419.0
new line.53143671 phases=3 bus1=82581115002228.1.2.3 bus2=82581105002228.1.2.3 r1=0.195 x1=0.4 length=0.047732 units=km normamps=419.0
new line.53143672 phases=3 bus1=82578505002228.1.2.3 bus2=82581025002228.1.2.3 r1=0.195 x1=0.4 length=0.152402 units=km normamps=419.0
new line.53143673 phases=3 bus1=82581135002228.1.2.3 bus2=82581115002228.1.2.3 r1=0.195 x1=0.4 length=0.059693 units=km normamps=419.0
new line.53143674 phases=3 bus1=82581145002228.1.2.3 bus2=82581135002228.1.2.3 r1=0.195 x1=0.4 length=0.007999 units=km normamps=419.0
new line.53143675 phases=3 bus1=82578495002228.1.2.3 bus2=82581135002228.1.2.3 r1=0.195 x1=0.4 length=0.07155 units=km normamps=419.0
new line.53143676 phases=3 bus1=82579505002228.1.2.3 bus2=82581165002228.1.2.3 r1=0.236 x1=0.27 length=0.034355 units=km normamps=456.0
new line.53143677 phases=3 bus1=82581165002228.1.2.3 bus2=82581175002228.1.2.3 r1=0.236 x1=0.27 length=0.035771 units=km normamps=456.0
new line.53143678 phases=3 bus1=82581175002228.1.2.3 bus2=82581185002228.1.2.3 r1=0.236 x1=0.27 length=0.029237 units=km normamps=456.0
new line.53143686 phases=3 bus1=82577115002228.1.2.3 bus2=82576745002228.1.2.3 r1=0.195 x1=0.4 length=0.029656 units=km normamps=419.0
new line.53143687 phases=3 bus1=82577115002228.1.2.3 bus2=83167745002228.1.2.3 r1=0.195 x1=0.4 length=0.012731 units=km normamps=419.0
new line.53143689 phases=3 bus1=82577125002228.1.2.3 bus2=82577145002228.1.2.3 r1=0.195 x1=0.4 length=0.025246 units=km normamps=419.0
new line.53143690 phases=3 bus1=82577155002228.1.2.3 bus2=82577145002228.1.2.3 r1=0.195 x1=0.4 length=0.006876 units=km normamps=419.0
new line.53143691 phases=3 bus1=82577145002228.1.2.3 bus2=82576905002228.1.2.3 r1=0.195 x1=0.4 length=0.026547 units=km normamps=419.0
new line.53143692 phases=3 bus1=82577165002228.1.2.3 bus2=82576885002228.1.2.3 r1=0.975 x1=0.47 length=0.026851 units=km normamps=152.0
new line.53143693 phases=3 bus1=82581185002228.1.2.3 bus2=82581195002228.1.2.3 r1=0.236 x1=0.27 length=0.02894 units=km normamps=456.0
new line.53143694 phases=3 bus1=82581195002228.1.2.3 bus2=82581205002228.1.2.3 r1=0.236 x1=0.27 length=0.022121 units=km normamps=456.0
new line.53143695 phases=3 bus1=82581205002228.1.2.3 bus2=82578545002228.1.2.3 r1=0.236 x1=0.27 length=0.02924 units=km normamps=456.0
new line.53143696 phases=3 bus1=82578545002228.1.2.3 bus2=82578555002228.1.2.3 r1=0.236 x1=0.27 length=0.042825 units=km normamps=456.0
new line.53143698 phases=3 bus1=80436945002228.1.2.3 bus2=82581275002228.1.2.3 r1=0.236 x1=0.27 length=0.035201 units=km normamps=456.0
new line.53143699 phases=3 bus1=82581275002228.1.2.3 bus2=82581285002228.1.2.3 r1=0.236 x1=0.27 length=0.034593 units=km normamps=456.0
new line.53143702 phases=3 bus1=82577175002228.1.2.3 bus2=82577165002228.1.2.3 r1=0.975 x1=0.47 length=0.018011 units=km normamps=152.0
new line.53143703 phases=3 bus1=82577185002228.1.2.3 bus2=82577165002228.1.2.3 r1=0.975 x1=0.47 length=0.008938 units=km normamps=152.0
new line.53143704 phases=3 bus1=82577045002228.1.2.3 bus2=82577225002228.1.2.3 r1=0.195 x1=0.4 length=0.031943 units=km normamps=419.0
new line.53143705 phases=3 bus1=82577225002228.1.2.3 bus2=82577235002228.1.2.3 r1=0.195 x1=0.4 length=0.023872 units=km normamps=419.0
new line.53143706 phases=3 bus1=82577235002228.1.2.3 bus2=82576725002228.1.2.3 r1=0.195 x1=0.4 length=0.027621 units=km normamps=419.0
new line.53143707 phases=3 bus1=82577245002228.1.2.3 bus2=82577185002228.1.2.3 r1=0.975 x1=0.47 length=0.004277 units=km normamps=152.0
new line.53143708 phases=3 bus1=82577335002228.1.2.3 bus2=82576555002228B.1.2.3 r1=1.551 x1=0.49 length=0.037221 units=km normamps=114.0
new line.53143709 phases=3 bus1=82577345002228.1.2.3 bus2=82577335002228.1.2.3 r1=1.551 x1=0.49 length=0.02716 units=km normamps=114.0
new line.53143710 phases=3 bus1=82577355002228.1.2.3 bus2=82577345002228.1.2.3 r1=1.551 x1=0.49 length=0.035906 units=km normamps=114.0
new line.53143711 phases=3 bus1=82577365002228.1.2.3 bus2=82577355002228.1.2.3 r1=1.551 x1=0.49 length=0.029812 units=km normamps=114.0
new line.53143712 phases=3 bus1=82577375002228.1.2.3 bus2=82577365002228.1.2.3 r1=1.551 x1=0.49 length=0.039879 units=km normamps=114.0
new line.53143713 phases=3 bus1=82577385002228.1.2.3 bus2=82577375002228.1.2.3 r1=1.551 x1=0.49 length=0.028475 units=km normamps=114.0
new line.53143714 phases=3 bus1=82577395002228.1.2.3 bus2=82577385002228.1.2.3 r1=1.551 x1=0.49 length=0.024236 units=km normamps=114.0
new line.53143715 phases=3 bus1=82577405002228.1.2.3 bus2=82577395002228.1.2.3 r1=1.551 x1=0.49 length=0.022979 units=km normamps=114.0
new line.53143716 phases=3 bus1=82577415002228.1.2.3 bus2=82577405002228.1.2.3 r1=1.551 x1=0.49 length=0.027533 units=km normamps=114.0
new line.53143717 phases=3 bus1=82577425002228.1.2.3 bus2=82577415002228.1.2.3 r1=1.551 x1=0.49 length=0.031306 units=km normamps=114.0
new line.53143718 phases=3 bus1=82577495002228.1.2.3 bus2=82577505002228.1.2.3 r1=1.551 x1=0.49 length=0.037385 units=km normamps=114.0
new line.53143719 phases=3 bus1=82577505002228.1.2.3 bus2=82577515002228.1.2.3 r1=1.551 x1=0.49 length=0.028131 units=km normamps=114.0
new line.53143720 phases=3 bus1=82577515002228.1.2.3 bus2=82577525002228.1.2.3 r1=1.551 x1=0.49 length=0.038928 units=km normamps=114.0
new line.53143721 phases=3 bus1=82577525002228.1.2.3 bus2=82577535002228B.1.2.3 r1=1.551 x1=0.49 length=0.032092 units=km normamps=114.0
new line.53143722 phases=3 bus1=82577535002228.1.2.3 bus2=82577545002228.1.2.3 r1=1.551 x1=0.49 length=0.008244 units=km normamps=114.0
new line.53143723 phases=3 bus1=82577545002228.1.2.3 bus2=82577555002228.1.2.3 r1=1.551 x1=0.49 length=0.016388 units=km normamps=114.0
new line.53143724 phases=3 bus1=82577015002228.1.2.3 bus2=82578035002228B.1.2.3 r1=0.195 x1=0.4 length=0.055318 units=km normamps=419.0
new line.53143725 phases=3 bus1=82578035002228.1.2.3 bus2=82578045002228.1.2.3 r1=0.236 x1=0.27 length=0.020436 units=km normamps=456.0
new line.53143726 phases=3 bus1=82578045002228.1.2.3 bus2=94348365002228.1.2.3 r1=0.236 x1=0.27 length=0.005841 units=km normamps=456.0
new line.53143727 phases=3 bus1=82578055002228.1.2.3 bus2=80436965002228.1.2.3 r1=0.236 x1=0.27 length=0.020196 units=km normamps=456.0
new line.53143728 phases=3 bus1=82579875002228.1.2.3 bus2=82581075002228.1.2.3 r1=0.195 x1=0.4 length=0.076024 units=km normamps=419.0
new line.53143729 phases=3 bus1=82577745002228.1.2.3 bus2=82577755002228.1.2.3 r1=1.551 x1=0.49 length=0.032251 units=km normamps=114.0
new line.53143730 phases=3 bus1=82577755002228.1.2.3 bus2=82577765002228.1.2.3 r1=1.551 x1=0.49 length=0.032664 units=km normamps=114.0
new line.53143731 phases=3 bus1=82577765002228.1.2.3 bus2=82577775002228.1.2.3 r1=1.551 x1=0.49 length=0.016488 units=km normamps=114.0
new line.53143732 phases=3 bus1=82577775002228.1.2.3 bus2=82577785002228.1.2.3 r1=1.551 x1=0.49 length=0.012356 units=km normamps=114.0
new line.53143733 phases=3 bus1=82577785002228B.1.2.3 bus2=82577795002228.1.2.3 r1=1.551 x1=0.49 length=0.031367 units=km normamps=114.0
new line.53143734 phases=3 bus1=82577795002228.1.2.3 bus2=82577805002228.1.2.3 r1=1.551 x1=0.49 length=0.026741 units=km normamps=114.0
new line.53143735 phases=3 bus1=82578015002228B.1.2.3 bus2=82578675002228.1.2.3 r1=0.613 x1=0.45 length=0.031073 units=km normamps=203.0
new line.53143736 phases=3 bus1=82574905002228.1.2.3 bus2=82578755002228.1.2.3 r1=0.975 x1=0.47 length=0.036268 units=km normamps=152.0
new line.53143737 phases=3 bus1=82578755002228.1.2.3 bus2=82578765002228.1.2.3 r1=0.975 x1=0.47 length=0.037212 units=km normamps=152.0
new line.53143738 phases=3 bus1=82578765002228.1.2.3 bus2=82578775002228.1.2.3 r1=1.551 x1=0.49 length=0.035716 units=km normamps=114.0
new line.53143739 phases=3 bus1=82578775002228.1.2.3 bus2=82578785002228B.1.2.3 r1=1.551 x1=0.49 length=0.037599 units=km normamps=114.0
new line.53143740 phases=3 bus1=82578785002228.1.2.3 bus2=82578805002228.1.2.3 r1=1.551 x1=0.49 length=0.017858 units=km normamps=114.0
new line.53143742 phases=3 bus1=82581325002228.1.2.3 bus2=82581315002228.1.2.3 r1=0.236 x1=0.27 length=0.007009 units=km normamps=456.0
new line.53143750 phases=3 bus1=82580925002228.1.2.3 bus2=82581335002228.1.2.3 r1=0.195 x1=0.4 length=0.005719 units=km normamps=419.0
new line.53143751 phases=3 bus1=82578385002228.1.2.3 bus2=82581345002228.1.2.3 r1=0.195 x1=0.4 length=0.005167 units=km normamps=419.0
new line.53143752 phases=3 bus1=82574885002228.1.2.3 bus2=82574895002228.1.2.3 r1=0.975 x1=0.47 length=0.015474 units=km normamps=152.0
new line.53143753 phases=3 bus1=82574895002228.1.2.3 bus2=82574905002228.1.2.3 r1=0.975 x1=0.47 length=0.032092 units=km normamps=152.0
new line.53143754 phases=3 bus1=82574885002228.1.2.3 bus2=82574915002228.1.2.3 r1=0.975 x1=0.47 length=0.025058 units=km normamps=152.0
new line.53143755 phases=3 bus1=82574915002228.1.2.3 bus2=82574925002228.1.2.3 r1=0.975 x1=0.47 length=0.028792 units=km normamps=152.0
new line.53143759 phases=3 bus1=82578805002228.1.2.3 bus2=82578795002228.1.2.3 r1=1.551 x1=0.49 length=0.008432 units=km normamps=114.0
new line.53143760 phases=3 bus1=82578795002228.1.2.3 bus2=82578815002228.1.2.3 r1=1.551 x1=0.49 length=0.034709 units=km normamps=114.0
new line.53143761 phases=3 bus1=82578815002228.1.2.3 bus2=82578825002228.1.2.3 r1=1.551 x1=0.49 length=0.04018 units=km normamps=114.0
new line.53143762 phases=3 bus1=82578825002228.1.2.3 bus2=82578835002228B.1.2.3 r1=1.551 x1=0.49 length=0.031501 units=km normamps=114.0
new line.53143763 phases=3 bus1=82578835002228.1.2.3 bus2=82578845002228.1.2.3 r1=1.551 x1=0.49 length=0.012409 units=km normamps=114.0
new line.53143764 phases=3 bus1=82578845002228.1.2.3 bus2=82578015002228.1.2.3 r1=0.613 x1=0.45 length=0.026843 units=km normamps=203.0
new line.53143765 phases=3 bus1=82578855002228.1.2.3 bus2=82578845002228.1.2.3 r1=0.613 x1=0.45 length=0.037274 units=km normamps=203.0
new line.53143766 phases=3 bus1=82578865002228.1.2.3 bus2=82578855002228.1.2.3 r1=0.613 x1=0.45 length=0.024541 units=km normamps=203.0
new line.53143767 phases=3 bus1=82578875002228.1.2.3 bus2=82578865002228.1.2.3 r1=0.613 x1=0.45 length=0.032785 units=km normamps=203.0
new line.53143768 phases=3 bus1=82578885002228.1.2.3 bus2=82578875002228.1.2.3 r1=0.613 x1=0.45 length=0.021463 units=km normamps=203.0
new line.53143769 phases=3 bus1=82579015002228.1.2.3 bus2=82578885002228.1.2.3 r1=0.613 x1=0.45 length=0.030694 units=km normamps=203.0
new line.53143770 phases=3 bus1=82579025002228.1.2.3 bus2=82579015002228.1.2.3 r1=0.613 x1=0.45 length=0.028704 units=km normamps=203.0
new line.53143771 phases=3 bus1=82577615002228.1.2.3 bus2=82579025002228.1.2.3 r1=0.613 x1=0.45 length=0.027609 units=km normamps=203.0
new line.53143772 phases=3 bus1=82579035002228.1.2.3 bus2=82577615002228.1.2.3 r1=0.613 x1=0.45 length=0.026596 units=km normamps=203.0
new line.53143773 phases=3 bus1=82576545002228.1.2.3 bus2=82579055002228.1.2.3 r1=0.613 x1=0.45 length=0.02865 units=km normamps=203.0
new line.53143774 phases=3 bus1=82579125002228.1.2.3 bus2=82577775002228.1.2.3 r1=1.551 x1=0.49 length=0.010651 units=km normamps=114.0
new line.53143775 phases=3 bus1=82577775002228.1.2.3 bus2=82579135002228.1.2.3 r1=1.551 x1=0.49 length=0.011013 units=km normamps=114.0
new line.53143776 phases=3 bus1=82575215002228.1.2.3 bus2=82575205002228.1.2.3 r1=0.195 x1=0.4 length=0.039072 units=km normamps=419.0
new line.53143777 phases=3 bus1=80435995002228.1.2.3 bus2=82575215002228.1.2.3 r1=0.195 x1=0.4 length=0.089756 units=km normamps=419.0
...

! 3. Chaves Seccionadoras MT
new line.SC_5291490 phases=3 bus1=82575365002228.1.2.3 bus2=82575365002228B.1.2.3 switch=y r1=1e-4 x1=1e-4 length=0.001 units=km
new line.SC_5291491 phases=3 bus1=80436005002228.1.2.3 bus2=80436005002228B.1.2.3 switch=y r1=1e-4 x1=1e-4 length=0.001 units=km
new line.SC_5291492 phases=3 bus1=82575955002228.1.2.3 bus2=82575955002228B.1.2.3 switch=y r1=1e-4 x1=1e-4 length=0.001 units=km
new line.SC_5291493 phases=3 bus1=82579335002228.1.2.3 bus2=82579335002228B.1.2.3 switch=y r1=1e-4 x1=1e-4 length=0.001 units=km
new line.SC_5291496 phases=3 bus1=82578035002228.1.2.3 bus2=82578035002228B.1.2.3 switch=y r1=1e-4 x1=1e-4 length=0.001 units=km
new line.SC_5291497 phases=3 bus1=80475215002228.1.2.3 bus2=80475215002228B.1.2.3 switch=y r1=1e-4 x1=1e-4 length=0.001 units=km
new line.SC_5291498 phases=3 bus1=82584435002228.1.2.3 bus2=82584435002228B.1.2.3 switch=y r1=1e-4 x1=1e-4 length=0.001 units=km
new line.SC_5291560 phases=3 bus1=82576745002228.1.2.3 bus2=82576745002228B.1.2.3 switch=y r1=1e-4 x1=1e-4 length=0.001 units=km
new line.SC_5291561 phases=3 bus1=82576815002228.1.2.3 bus2=82576815002228B.1.2.3 switch=y r1=1e-4 x1=1e-4 length=0.001 units=km
new line.SC_5291564 phases=3 bus1=82573535002228.1.2.3 bus2=82573535002228B.1.2.3 switch=y r1=1e-4 x1=1e-4 length=0.001 units=km
new line.SC_5291565 phases=3 bus1=82574205002228.1.2.3 bus2=82574205002228B.1.2.3 switch=y r1=1e-4 x1=1e-4 length=0.001 units=km
new line.SC_5291566 phases=3 bus1=82576555002228.1.2.3 bus2=82576555002228B.1.2.3 switch=y r1=1e-4 x1=1e-4 length=0.001 units=km
new line.SC_5291567 phases=3 bus1=82576905002228.1.2.3 bus2=82576905002228B.1.2.3 switch=y r1=1e-4 x1=1e-4 length=0.001 units=km
new line.SC_5291568 phases=3 bus1=82578185002228.1.2.3 bus2=82578185002228B.1.2.3 switch=y r1=1e-4 x1=1e-4 length=0.001 units=km
new line.SC_5291570 phases=3 bus1=82573205002228.1.2.3 bus2=82573205002228B.1.2.3 switch=y r1=1e-4 x1=1e-4 length=0.001 units=km
new line.SC_5291571 phases=3 bus1=82577535002228.1.2.3 bus2=82577535002228B.1.2.3 switch=y r1=1e-4 x1=1e-4 length=0.001 units=km
new line.SC_5291572 phases=3 bus1=82577785002228.1.2.3 bus2=82577785002228B.1.2.3 switch=y r1=1e-4 x1=1e-4 length=0.001 units=km
new line.SC_5291573 phases=3 bus1=82578015002228.1.2.3 bus2=82578015002228B.1.2.3 switch=y r1=1e-4 x1=1e-4 length=0.001 units=km
new line.SC_5291574 phases=3 bus1=82578785002228.1.2.3 bus2=82578785002228B.1.2.3 switch=y r1=1e-4 x1=1e-4 length=0.001 units=km
new line.SC_5291575 phases=3 bus1=82578835002228.1.2.3 bus2=82578835002228B.1.2.3 switch=y r1=1e-4 x1=1e-4 length=0.001 units=km
new line.SC_5291576 phases=3 bus1=82576475002228.1.2.3 bus2=82576475002228B.1.2.3 switch=y r1=1e-4 x1=1e-4 length=0.001 units=km
new line.SC_5291577 phases=3 bus1=82579385002228.1.2.3 bus2=82579385002228B.1.2.3 switch=y r1=1e-4 x1=1e-4 length=0.001 units=km
new line.SC_5291578 phases=3 bus1=82578065002228.1.2.3 bus2=82578065002228B.1.2.3 switch=y r1=1e-4 x1=1e-4 length=0.001 units=km
new line.SC_5291580 phases=3 bus1=80435995002228.1.2.3 bus2=80435995002228B.1.2.3 switch=y r1=1e-4 x1=1e-4 length=0.001 units=km
new line.SC_5291581 phases=3 bus1=82575525002228.1.2.3 bus2=82575525002228B.1.2.3 switch=y r1=1e-4 x1=1e-4 length=0.001 units=km
new line.SC_5291585 phases=3 bus1=82579435002228.1.2.3 bus2=82579435002228B.1.2.3 switch=y r1=1e-4 x1=1e-4 length=0.001 units=km
new line.SC_5291590 phases=3 bus1=82586475002228.1.2.3 bus2=82586475002228B.1.2.3 switch=y r1=1e-4 x1=1e-4 length=0.001 units=km
new line.SC_5291591 phases=3 bus1=82586525002228.1.2.3 bus2=82586525002228B.1.2.3 switch=y r1=1e-4 x1=1e-4 length=0.001 units=km
new line.SC_5291594 phases=3 bus1=82584175002228.1.2.3 bus2=82584175002228B.1.2.3 switch=y r1=1e-4 x1=1e-4 length=0.001 units=km
new line.SC_5291595 phases=3 bus1=82584375002228.1.2.3 bus2=82584375002228B.1.2.3 switch=y r1=1e-4 x1=1e-4 length=0.001 units=km
new line.SC_5291596 phases=3 bus1=82584405002228.1.2.3 bus2=82584405002228B.1.2.3 switch=y r1=1e-4 x1=1e-4 length=0.001 units=km
new line.SC_5291597 phases=3 bus1=82584415002228.1.2.3 bus2=82584415002228B.1.2.3 switch=y r1=1e-4 x1=1e-4 length=0.001 units=km
new line.SC_5295130 phases=3 bus1=82570725002228.1.2.3 bus2=82570725002228B.1.2.3 switch=y r1=1e-4 x1=1e-4 length=0.001 units=km
new line.SC_5295131 phases=3 bus1=82570745002228.1.2.3 bus2=82570745002228B.1.2.3 switch=y r1=1e-4 x1=1e-4 length=0.001 units=km
new line.SC_5295134 phases=3 bus1=82569465002228.1.2.3 bus2=82569465002228B.1.2.3 switch=y r1=1e-4 x1=1e-4 length=0.001 units=km
new line.SC_5300068 phases=3 bus1=82569585002228.1.2.3 bus2=82569585002228B.1.2.3 switch=y r1=1e-4 x1=1e-4 length=0.001 units=km
new line.SC_5300069 phases=3 bus1=82568695002228.1.2.3 bus2=82568695002228B.1.2.3 switch=y r1=1e-4 x1=1e-4 length=0.001 units=km
new line.SC_5303595 phases=3 bus1=90122325002228.1.2.3 bus2=90122325002228B.1.2.3 switch=y r1=1e-4 x1=1e-4 length=0.001 units=km
new line.SC_5312210 phases=3 bus1=82569605002228.1.2.3 bus2=82569605002228B.1.2.3 switch=y r1=1e-4 x1=1e-4 length=0.001 units=km
new line.SC_5489110 phases=3 bus1=82573245002228.1.2.3 bus2=82573245002228B.1.2.3 switch=y r1=1e-4 x1=1e-4 length=0.001 units=km
new line.SC_5549652 phases=3 bus1=82578215002228.1.2.3 bus2=82578215002228B.1.2.3 switch=y r1=1e-4 x1=1e-4 length=0.001 units=km
new line.SC_5549653 phases=3 bus1=93292995002228.1.2.3 bus2=93292995002228B.1.2.3 switch=y r1=1e-4 x1=1e-4 length=0.001 units=km
open line.SC_5549653 1
new line.SC_5549654 phases=3 bus1=93776475002228.1.2.3 bus2=93776475002228B.1.2.3 switch=y r1=1e-4 x1=1e-4 length=0.001 units=km
new line.SC_5549655 phases=3 bus1=93776485002228.1.2.3 bus2=93776485002228B.1.2.3 switch=y r1=1e-4 x1=1e-4 length=0.001 units=km
new line.SC_5563025 phases=3 bus1=90482155002228.1.2.3 bus2=90482155002228B.1.2.3 switch=y r1=1e-4 x1=1e-4 length=0.001 units=km
new line.SC_5584789 phases=3 bus1=90055685002228.1.2.3 bus2=90055685002228B.1.2.3 switch=y r1=1e-4 x1=1e-4 length=0.001 units=km
new line.SC_5585486 phases=3 bus1=82578225002228.1.2.3 bus2=82578225002228B.1.2.3 switch=y r1=1e-4 x1=1e-4 length=0.001 units=km
new line.SC_5608287 phases=3 bus1=82569415002228.1.2.3 bus2=82569415002228B.1.2.3 switch=y r1=1e-4 x1=1e-4 length=0.001 units=km
new line.SC_5656535 phases=3 bus1=93432965002228.1.2.3 bus2=93432965002228B.1.2.3 switch=y r1=1e-4 x1=1e-4 length=0.001 units=km
open line.SC_5656535 1
new line.SC_5659889 phases=3 bus1=93494105002228.1.2.3 bus2=93494105002228B.1.2.3 switch=y r1=1e-4 x1=1e-4 length=0.001 units=km
open line.SC_5659889 1
new line.SC_5687473 phases=3 bus1=94298095002228.1.2.3 bus2=94298095002228B.1.2.3 switch=y r1=1e-4 x1=1e-4 length=0.001 units=km
new line.SC_5687502 phases=3 bus1=94298235002228.1.2.3 bus2=94298235002228B.1.2.3 switch=y r1=1e-4 x1=1e-4 length=0.001 units=km
open line.SC_5687502 1
new line.SC_5689647 phases=3 bus1=94348065002228.1.2.3 bus2=94348065002228B.1.2.3 switch=y r1=1e-4 x1=1e-4 length=0.001 units=km
new line.SC_5689648 phases=3 bus1=94348095002228.1.2.3 bus2=94348095002228B.1.2.3 switch=y r1=1e-4 x1=1e-4 length=0.001 units=km
open line.SC_5689648 1
new line.SC_5697270 phases=3 bus1=94480665002228.1.2.3 bus2=94480665002228B.1.2.3 switch=y r1=1e-4 x1=1e-4 length=0.001 units=km
new line.SC_5697271 phases=3 bus1=94480715002228.1.2.3 bus2=94480715002228B.1.2.3 switch=y r1=1e-4 x1=1e-4 length=0.001 units=km
open line.SC_5697271 1
new line.SC_5719923 phases=3 bus1=95149745002228.1.2.3 bus2=95149745002228B.1.2.3 switch=y r1=1e-4 x1=1e-4 length=0.001 units=km
new line.SC_5719957 phases=3 bus1=95149785002228.1.2.3 bus2=95149785002228B.1.2.3 switch=y r1=1e-4 x1=1e-4 length=0.001 units=km
open line.SC_5719957 1
new line.SC_5756268 phases=3 bus1=96895385002228.1.2.3 bus2=96895385002228B.1.2.3 switch=y r1=1e-4 x1=1e-4 length=0.001 units=km
open line.SC_5756268 1
new line.SC_5762185 phases=3 bus1=97150165002228.1.2.3 bus2=97150165002228B.1.2.3 switch=y r1=1e-4 x1=1e-4 length=0.001 units=km
open line.SC_5762185 1
new line.SC_5762394 phases=3 bus1=94155345002228.1.2.3 bus2=94155345002228B.1.2.3 switch=y r1=1e-4 x1=1e-4 length=0.001 units=km
new line.SC_5762396 phases=3 bus1=97157955002228.1.2.3 bus2=97157955002228B.1.2.3 switch=y r1=1e-4 x1=1e-4 length=0.001 units=km
open line.SC_5762396 1
new line.SC_5766515 phases=3 bus1=96604045002228.1.2.3 bus2=96604045002228B.1.2.3 switch=y r1=1e-4 x1=1e-4 length=0.001 units=km
new line.SC_5767118 phases=3 bus1=82586825002228.1.2.3 bus2=82586825002228B.1.2.3 switch=y r1=1e-4 x1=1e-4 length=0.001 units=km
open line.SC_5767118 1
new line.SC_5773626 phases=3 bus1=96604035002228.1.2.3 bus2=96604035002228B.1.2.3 switch=y r1=1e-4 x1=1e-4 length=0.001 units=km
new line.SC_5806451 phases=3 bus1=82586435002228.1.2.3 bus2=82586435002228B.1.2.3 switch=y r1=1e-4 x1=1e-4 length=0.001 units=km
new line.SC_5807026 phases=3 bus1=96604145002228.1.2.3 bus2=96604145002228B.1.2.3 switch=y r1=1e-4 x1=1e-4 length=0.001 units=km
new line.SC_SA0002821 phases=3 bus1=SA0002821.1.2.3 bus2=SA0002821B.1.2.3 switch=y r1=1e-4 x1=1e-4 length=0.001 units=km
new line.SC_SA0002822 phases=3 bus1=SA0002822.1.2.3 bus2=SA0002822B.1.2.3 switch=y r1=1e-4 x1=1e-4 length=0.001 units=km
new line.SC_DA0000428 phases=3 bus1=I888888103535002228.1.2.3 bus2=I888888103535002228B.1.2.3 switch=y r1=1e-4 x1=1e-4 length=0.001 units=km

! 4. Bancos de Capacitores MT
new capacitor.5291487 phases=3 bus1=80439215002228.1.2.3 conn=wye kv=13.8 kvar=600.0

! 5. Transformadores MT/BT de Distribuicao
new transformer.UNTRMT_5291502 phases=3 windings=2 %r=1.68 xhl=3.07 kva=45.0
~ wdg=1 bus=82568655002228.1.2.3 conn=delta kv=13.8
~ wdg=2 bus=82568655291502.1.2.3.0 conn=wye kv=0.38

new transformer.UNTRMT_5291505 phases=3 windings=2 %r=1.39 xhl=3.21 kva=112.0
~ wdg=1 bus=82569525002228.1.2.3 conn=delta kv=13.8
~ wdg=2 bus=82569525291505.1.2.3.0 conn=wye kv=0.38

new transformer.UNTRMT_5291514 phases=3 windings=2 %r=1.3 xhl=4.31 kva=225.0
~ wdg=1 bus=82577155002228.1.2.3 conn=delta kv=13.8
~ wdg=2 bus=82577155291514.1.2.3.0 conn=wye kv=0.38

new transformer.UNTRMT_5291516 phases=1 windings=3 %r=2.08 xhl=1.39 xht=1.39 xlt=0.97 kva=10.0
~ wdg=1 bus=82580825002228.1 conn=wye kv=7.96 kva=10.0 %r=1.04
~ wdg=2 bus=82580825291516.1.0 conn=wye kv=0.22 kva=10.0 %r=1.04
~ wdg=3 bus=82580825291516.0.2 conn=wye kv=0.22 kva=10.0 %r=1.04

new transformer.UNTRMT_5291518 phases=3 windings=2 %r=1.68 xhl=3.07 kva=45.0
~ wdg=1 bus=82580875002228.1.2.3 conn=delta kv=13.8
~ wdg=2 bus=82580875291518.1.2.3.0 conn=wye kv=0.38

new transformer.UNTRMT_5291523 phases=3 windings=2 %r=1.55 xhl=3.14 kva=112.0
~ wdg=1 bus=82577175002228.1.2.3 conn=delta kv=13.8
~ wdg=2 bus=82577175291523.1.2.3.0 conn=wye kv=0.38

new transformer.UNTRMT_5291524 phases=3 windings=2 %r=1.39 xhl=3.21 kva=150.0
~ wdg=1 bus=82577245002228.1.2.3 conn=delta kv=13.8
~ wdg=2 bus=82577245291524.1.2.3.0 conn=wye kv=0.38

new transformer.UNTRMT_5291526 phases=3 windings=2 %r=1.55 xhl=3.14 kva=75.0
~ wdg=1 bus=82579425002228.1.2.3 conn=delta kv=13.8
~ wdg=2 bus=82579425291526.1.2.3.0 conn=wye kv=0.38

new transformer.UNTRMT_5291528 phases=3 windings=2 %r=1.68 xhl=3.07 kva=45.0
~ wdg=1 bus=82578425002228.1.2.3 conn=delta kv=13.8
~ wdg=2 bus=82578425291528.1.2.3.0 conn=wye kv=0.38

new transformer.UNTRMT_5291536 phases=3 windings=2 %r=1.55 xhl=3.14 kva=75.0
~ wdg=1 bus=82588885002228.1.2.3 conn=delta kv=13.8
~ wdg=2 bus=82588885291536.1.2.3.0 conn=wye kv=0.38

new transformer.UNTRMT_5291537 phases=3 windings=2 %r=1.68 xhl=3.07 kva=45.0
~ wdg=1 bus=82588325002228.1.2.3 conn=delta kv=13.8
~ wdg=2 bus=82588325291537.1.2.3.0 conn=wye kv=0.38

new transformer.UNTRMT_5291546 phases=3 windings=2 %r=1.78 xhl=3.01 kva=30.0
~ wdg=1 bus=82583555002228.1.2.3 conn=delta kv=13.8
~ wdg=2 bus=82583555291546.1.2.3.0 conn=wye kv=0.38

new transformer.UNTRMT_5291614 phases=3 windings=2 %r=1.55 xhl=3.14 kva=75.0
~ wdg=1 bus=82569815002228.1.2.3 conn=delta kv=13.8
~ wdg=2 bus=82569815291614.1.2.3.0 conn=wye kv=0.38

new transformer.UNTRMT_5291622 phases=3 windings=2 %r=1.46 xhl=3.18 kva=112.0
~ wdg=1 bus=82576775002228.1.2.3 conn=delta kv=13.8
~ wdg=2 bus=82576775291622.1.2.3.0 conn=wye kv=0.38

new transformer.UNTRMT_5291623 phases=3 windings=2 %r=1.46 xhl=3.18 kva=112.0
~ wdg=1 bus=82576795002228.1.2.3 conn=delta kv=13.8
~ wdg=2 bus=82576795291623.1.2.3.0 conn=wye kv=0.38

new transformer.UNTRMT_5291625 phases=3 windings=2 %r=1.46 xhl=3.18 kva=112.0
~ wdg=1 bus=82573555002228.1.2.3 conn=delta kv=13.8
~ wdg=2 bus=82573555291625.1.2.3.0 conn=wye kv=0.38

new transformer.UNTRMT_5291626 phases=3 windings=2 %r=1.68 xhl=3.07 kva=45.0
~ wdg=1 bus=82573915002228.1.2.3 conn=delta kv=13.8
~ wdg=2 bus=82573915291626.1.2.3.0 conn=wye kv=0.38

new transformer.UNTRMT_5291627 phases=3 windings=2 %r=1.68 xhl=3.07 kva=45.0
~ wdg=1 bus=82574045002228.1.2.3 conn=delta kv=13.8
~ wdg=2 bus=82574045291627.1.2.3.0 conn=wye kv=0.38

new transformer.UNTRMT_5291628 phases=3 windings=2 %r=1.46 xhl=3.18 kva=112.0
~ wdg=1 bus=82574255002228.1.2.3 conn=delta kv=13.8
~ wdg=2 bus=82574255291628.1.2.3.0 conn=wye kv=0.38

new transformer.UNTRMT_5291629 phases=3 windings=2 %r=1.39 xhl=3.21 kva=150.0
~ wdg=1 bus=82577375002228.1.2.3 conn=delta kv=13.8
~ wdg=2 bus=82577375291629.1.2.3.0 conn=wye kv=0.38

new transformer.UNTRMT_5291630 phases=3 windings=2 %r=1.46 xhl=3.18 kva=112.0
~ wdg=1 bus=82573005002228.1.2.3 conn=delta kv=13.8
~ wdg=2 bus=82573005291630.1.2.3.0 conn=wye kv=0.38

new transformer.UNTRMT_5291631 phases=3 windings=2 %r=1.55 xhl=3.14 kva=75.0
~ wdg=1 bus=82571075002228.1.2.3 conn=delta kv=13.8
~ wdg=2 bus=82571075291631.1.2.3.0 conn=wye kv=0.38

new transformer.UNTRMT_5291632 phases=3 windings=2 %r=1.46 xhl=3.18 kva=112.0
~ wdg=1 bus=82574965002228.1.2.3 conn=delta kv=13.8
~ wdg=2 bus=82574965291632.1.2.3.0 conn=wye kv=0.38

new transformer.UNTRMT_5291633 phases=3 windings=2 %r=1.68 xhl=3.07 kva=45.0
~ wdg=1 bus=82576825002228.1.2.3 conn=delta kv=13.8
~ wdg=2 bus=82576825291633.1.2.3.0 conn=wye kv=0.38

new transformer.UNTRMT_5291634 phases=3 windings=2 %r=1.39 xhl=3.21 kva=150.0
~ wdg=1 bus=82576925002228.1.2.3 conn=delta kv=13.8
~ wdg=2 bus=82576925291634.1.2.3.0 conn=wye kv=0.38

new transformer.UNTRMT_5291635 phases=3 windings=2 %r=1.46 xhl=3.18 kva=112.0
~ wdg=1 bus=82577225002228.1.2.3 conn=delta kv=13.8
~ wdg=2 bus=82577225291635.1.2.3.0 conn=wye kv=0.38

new transformer.UNTRMT_5291636 phases=3 windings=2 %r=1.46 xhl=3.18 kva=112.0
~ wdg=1 bus=82571325002228.1.2.3 conn=delta kv=13.8
~ wdg=2 bus=82571325291636.1.2.3.0 conn=wye kv=0.38

new transformer.UNTRMT_5291637 phases=3 windings=2 %r=1.68 xhl=3.07 kva=45.0
~ wdg=1 bus=82571445002228.1.2.3 conn=delta kv=13.8
~ wdg=2 bus=82571445291637.1.2.3.0 conn=wye kv=0.38

new transformer.UNTRMT_5291638 phases=3 windings=2 %r=1.46 xhl=3.18 kva=112.0
~ wdg=1 bus=82573255002228.1.2.3 conn=delta kv=13.8
~ wdg=2 bus=82573255291638.1.2.3.0 conn=wye kv=0.38

new transformer.UNTRMT_5291639 phases=3 windings=2 %r=1.46 xhl=3.18 kva=112.0
~ wdg=1 bus=82573365002228.1.2.3 conn=delta kv=13.8
~ wdg=2 bus=82573365291639.1.2.3.0 conn=wye kv=0.38

new transformer.UNTRMT_5291640 phases=3 windings=2 %r=1.55 xhl=3.14 kva=75.0
~ wdg=1 bus=82577425002228.1.2.3 conn=delta kv=13.8
~ wdg=2 bus=82577425291640.1.2.3.0 conn=wye kv=0.38

new transformer.UNTRMT_5291641 phases=3 windings=2 %r=1.46 xhl=3.18 kva=112.0
~ wdg=1 bus=82577495002228.1.2.3 conn=delta kv=13.8
~ wdg=2 bus=82577495291641.1.2.3.0 conn=wye kv=0.38

new transformer.UNTRMT_5291642 phases=3 windings=2 %r=1.46 xhl=3.18 kva=112.0
~ wdg=1 bus=82577745002228.1.2.3 conn=delta kv=13.8
~ wdg=2 bus=82577745291642.1.2.3.0 conn=wye kv=0.38

new transformer.UNTRMT_5291643 phases=3 windings=2 %r=1.55 xhl=3.14 kva=75.0
~ wdg=1 bus=82577805002228.1.2.3 conn=delta kv=13.8
~ wdg=2 bus=82577805291643.1.2.3.0 conn=wye kv=0.38

new transformer.UNTRMT_5291644 phases=3 windings=2 %r=1.46 xhl=3.18 kva=112.0
~ wdg=1 bus=82578765002228.1.2.3 conn=delta kv=13.8
~ wdg=2 bus=82578765291644.1.2.3.0 conn=wye kv=0.38

new transformer.UNTRMT_5291645 phases=3 windings=2 %r=1.46 xhl=3.18 kva=112.0
~ wdg=1 bus=82578815002228.1.2.3 conn=delta kv=13.8
~ wdg=2 bus=82578815291645.1.2.3.0 conn=wye kv=0.38

new transformer.UNTRMT_5291646 phases=3 windings=2 %r=1.55 xhl=3.14 kva=75.0
~ wdg=1 bus=82578885002228.1.2.3 conn=delta kv=13.8
~ wdg=2 bus=82578885291646.1.2.3.0 conn=wye kv=0.38

new transformer.UNTRMT_5291647 phases=3 windings=2 %r=1.55 xhl=3.14 kva=75.0
~ wdg=1 bus=82574545002228.1.2.3 conn=delta kv=13.8
~ wdg=2 bus=82574545291647.1.2.3.0 conn=wye kv=0.38

new transformer.UNTRMT_5291648 phases=3 windings=2 %r=1.46 xhl=3.18 kva=112.0
~ wdg=1 bus=82575345002228.1.2.3 conn=delta kv=13.8
~ wdg=2 bus=82575345291648.1.2.3.0 conn=wye kv=0.38

new transformer.UNTRMT_5291649 phases=3 windings=2 %r=1.46 xhl=3.18 kva=112.0
~ wdg=1 bus=82575405002228.1.2.3 conn=delta kv=13.8
~ wdg=2 bus=82575405291649.1.2.3.0 conn=wye kv=0.38

new transformer.UNTRMT_5291650 phases=3 windings=2 %r=1.55 xhl=3.14 kva=75.0
~ wdg=1 bus=82575665002228.1.2.3 conn=delta kv=13.8
~ wdg=2 bus=82575665291650.1.2.3.0 conn=wye kv=0.38

new transformer.UNTRMT_5291651 phases=3 windings=2 %r=1.46 xhl=3.18 kva=112.0
~ wdg=1 bus=82575775002228.1.2.3 conn=delta kv=13.8
~ wdg=2 bus=82575775291651.1.2.3.0 conn=wye kv=0.38

new transformer.UNTRMT_5291652 phases=3 windings=2 %r=1.46 xhl=3.18 kva=112.0
~ wdg=1 bus=82576435002228.1.2.3 conn=delta kv=13.8
~ wdg=2 bus=82576435291652.1.2.3.0 conn=wye kv=0.38

new transformer.UNTRMT_5291653 phases=3 windings=2 %r=1.55 xhl=3.14 kva=75.0
~ wdg=1 bus=82579365002228.1.2.3 conn=delta kv=13.8
~ wdg=2 bus=82579365291653.1.2.3.0 conn=wye kv=0.38

new transformer.UNTRMT_5291654 phases=3 windings=2 %r=1.68 xhl=3.07 kva=45.0
~ wdg=1 bus=82581185002228.1.2.3 conn=delta kv=13.8
~ wdg=2 bus=82581185291654.1.2.3.0 conn=wye kv=0.38

new transformer.UNTRMT_5291655 phases=3 windings=2 %r=1.46 xhl=3.18 kva=112.0
~ wdg=1 bus=82579665002228.1.2.3 conn=delta kv=13.8
~ wdg=2 bus=82579665291655.1.2.3.0 conn=wye kv=0.38

new transformer.UNTRMT_5291656 phases=3 windings=2 %r=1.78 xhl=3.01 kva=30.0
~ wdg=1 bus=90122405002228.1.2.3 conn=delta kv=13.8
~ wdg=2 bus=90122405291656.1.2.3.0 conn=wye kv=0.38

new transformer.UNTRMT_5291657 phases=3 windings=2 %r=1.55 xhl=3.14 kva=75.0
~ wdg=1 bus=82581335002228.1.2.3 conn=delta kv=13.8
~ wdg=2 bus=82581335291657.1.2.3.0 conn=wye kv=0.38

new transformer.UNTRMT_5291658 phases=3 windings=2 %r=1.55 xhl=3.14 kva=75.0
~ wdg=1 bus=82581345002228.1.2.3 conn=delta kv=13.8
~ wdg=2 bus=82581345291658.1.2.3.0 conn=wye kv=0.38

new transformer.UNTRMT_5291659 phases=3 windings=2 %r=1.78 xhl=3.01 kva=30.0
~ wdg=1 bus=82581105002228.1.2.3 conn=delta kv=13.8
~ wdg=2 bus=82581105291659.1.2.3.0 conn=wye kv=0.38

new transformer.UNTRMT_5291660 phases=3 windings=2 %r=1.55 xhl=3.14 kva=75.0
~ wdg=1 bus=82581145002228.1.2.3 conn=delta kv=13.8
~ wdg=2 bus=82581145291660.1.2.3.0 conn=wye kv=0.38

new transformer.UNTRMT_5291661 phases=3 windings=2 %r=1.68 xhl=3.07 kva=45.0
~ wdg=1 bus=82575445002228.1.2.3 conn=delta kv=13.8
~ wdg=2 bus=82575445291661.1.2.3.0 conn=wye kv=0.38

new transformer.UNTRMT_5291662 phases=3 windings=2 %r=1.46 xhl=3.18 kva=112.0
~ wdg=1 bus=82575545002228.1.2.3 conn=delta kv=13.8
~ wdg=2 bus=82575545291662.1.2.3.0 conn=wye kv=0.38

new transformer.UNTRMT_5291663 phases=3 windings=2 %r=1.39 xhl=3.21 kva=150.0
~ wdg=1 bus=82575575002228.1.2.3 conn=delta kv=13.8
~ wdg=2 bus=82575575291663.1.2.3.0 conn=wye kv=0.38

new transformer.UNTRMT_5291664 phases=3 windings=2 %r=1.55 xhl=3.14 kva=75.0
~ wdg=1 bus=82576005002228.1.2.3 conn=delta kv=13.8
~ wdg=2 bus=82576005291664.1.2.3.0 conn=wye kv=0.38

new transformer.UNTRMT_5291683 phases=3 windings=2 %r=1.68 xhl=3.07 kva=45.0
~ wdg=1 bus=82585415002228.1.2.3 conn=delta kv=13.8
~ wdg=2 bus=82585415291683.1.2.3.0 conn=wye kv=0.38

new transformer.UNTRMT_5291684 phases=3 windings=2 %r=1.46 xhl=3.18 kva=112.0
~ wdg=1 bus=82585735002228.1.2.3 conn=delta kv=13.8
~ wdg=2 bus=82585735291684.1.2.3.0 conn=wye kv=0.38

new transformer.UNTRMT_5291686 phases=3 windings=2 %r=1.55 xhl=3.14 kva=75.0
~ wdg=1 bus=82584265002228.1.2.3 conn=delta kv=13.8
~ wdg=2 bus=82584265291686.1.2.3.0 conn=wye kv=0.38

new transformer.UNTRMT_5291689 phases=3 windings=2 %r=1.55 xhl=3.14 kva=75.0
~ wdg=1 bus=82586605002228.1.2.3 conn=delta kv=13.8
~ wdg=2 bus=82586605291689.1.2.3.0 conn=wye kv=0.38

new transformer.UNTRMT_5291690 phases=3 windings=2 %r=1.55 xhl=3.14 kva=75.0
~ wdg=1 bus=82587085002228.1.2.3 conn=delta kv=13.8
~ wdg=2 bus=82587085291690.1.2.3.0 conn=wye kv=0.38

new transformer.UNTRMT_5291692 phases=3 windings=2 %r=1.68 xhl=3.07 kva=45.0
~ wdg=1 bus=82588305002228.1.2.3 conn=delta kv=13.8
~ wdg=2 bus=82588305291692.1.2.3.0 conn=wye kv=0.38

new transformer.UNTRMT_5291693 phases=3 windings=2 %r=1.46 xhl=3.18 kva=112.0
~ wdg=1 bus=82584765002228.1.2.3 conn=delta kv=13.8
~ wdg=2 bus=82584765291693.1.2.3.0 conn=wye kv=0.38

new transformer.UNTRMT_5291694 phases=3 windings=2 %r=1.46 xhl=3.18 kva=112.0
~ wdg=1 bus=82583695002228.1.2.3 conn=delta kv=13.8
~ wdg=2 bus=82583695291694.1.2.3.0 conn=wye kv=0.38

new transformer.UNTRMT_5291695 phases=3 windings=2 %r=1.46 xhl=3.18 kva=112.0
~ wdg=1 bus=82583745002228.1.2.3 conn=delta kv=13.8
~ wdg=2 bus=82583745291695.1.2.3.0 conn=wye kv=0.38

new transformer.UNTRMT_5291696 phases=3 windings=2 %r=1.46 xhl=3.18 kva=112.0
~ wdg=1 bus=82583925002228.1.2.3 conn=delta kv=13.8
~ wdg=2 bus=82583925291696.1.2.3.0 conn=wye kv=0.38

new transformer.UNTRMT_5291697 phases=3 windings=2 %r=1.55 xhl=3.14 kva=75.0
~ wdg=1 bus=82584195002228.1.2.3 conn=delta kv=13.8
~ wdg=2 bus=82584195291697.1.2.3.0 conn=wye kv=0.38

new transformer.UNTRMT_5291698 phases=3 windings=2 %r=1.46 xhl=3.18 kva=112.0
~ wdg=1 bus=82585485002228.1.2.3 conn=delta kv=13.8
~ wdg=2 bus=82585485291698.1.2.3.0 conn=wye kv=0.38

new transformer.UNTRMT_5291699 phases=3 windings=2 %r=1.55 xhl=3.14 kva=75.0
~ wdg=1 bus=82585805002228.1.2.3 conn=delta kv=13.8
~ wdg=2 bus=82585805291699.1.2.3.0 conn=wye kv=0.38

new transformer.UNTRMT_5295132 phases=3 windings=2 %r=1.55 xhl=3.14 kva=75.0
~ wdg=1 bus=82570775002228.1.2.3 conn=delta kv=13.8
~ wdg=2 bus=82570775295132.1.2.3.0 conn=wye kv=0.38

new transformer.UNTRMT_5295135 phases=3 windings=2 %r=1.55 xhl=3.14 kva=75.0
~ wdg=1 bus=82569595002228.1.2.3 conn=delta kv=13.8
~ wdg=2 bus=82569595295135.1.2.3.0 conn=wye kv=0.38

new transformer.UNTRMT_5303593 phases=3 windings=2 %r=1.55 xhl=3.14 kva=75.0
~ wdg=1 bus=83316055002228.1.2.3 conn=delta kv=13.8
~ wdg=2 bus=83316055303593.1.2.3.0 conn=wye kv=0.38

new transformer.UNTRMT_5304272 phases=3 windings=2 %r=1.68 xhl=3.07 kva=45.0
~ wdg=1 bus=82578605002228.1.2.3 conn=delta kv=13.8
~ wdg=2 bus=82578605304272.1.2.3.0 conn=wye kv=0.38

new transformer.UNTRMT_5328516 phases=1 windings=3 %r=2.08 xhl=1.39 xht=1.39 xlt=0.97 kva=10.0
~ wdg=1 bus=83316185002228.1 conn=wye kv=7.96 kva=10.0 %r=1.04
~ wdg=2 bus=83316185328516.1.0 conn=wye kv=0.22 kva=10.0 %r=1.04
~ wdg=3 bus=83316185328516.0.2 conn=wye kv=0.22 kva=10.0 %r=1.04

new transformer.UNTRMT_5490785 phases=3 windings=2 %r=1.68 xhl=3.07 kva=45.0
~ wdg=1 bus=82578135002228.1.2.3 conn=delta kv=13.8
~ wdg=2 bus=82578135490785.1.2.3.0 conn=wye kv=0.38

new transformer.UNTRMT_5519975 phases=3 windings=2 %r=1.46 xhl=3.18 kva=112.0
~ wdg=1 bus=89183145002228.1.2.3 conn=delta kv=13.8
~ wdg=2 bus=89183145519975.1.2.3.0 conn=wye kv=0.38

new transformer.UNTRMT_5563027 phases=3 windings=2 %r=1.3 xhl=4.31 kva=225.0
~ wdg=1 bus=90482145002228.1.2.3 conn=delta kv=13.8
~ wdg=2 bus=90482145563027.1.2.3.0 conn=wye kv=0.38

new transformer.UNTRMT_5605147 phases=3 windings=2 %r=1.68 xhl=3.07 kva=45.0
~ wdg=1 bus=90122295002228.1.2.3 conn=delta kv=13.8
~ wdg=2 bus=90122295605147-766.1.2.3.0 conn=wye kv=0.38

new transformer.UNTRMT_5722481 phases=3 windings=2 %r=1.55 xhl=3.14 kva=75.0
~ wdg=1 bus=95256625002228.1.2.3 conn=delta kv=13.8
~ wdg=2 bus=95256625722481.1.2.3.0 conn=wye kv=0.38

! 6. Linhas de Baixa Tensao (BT)
new line.52874321 phases=3 bus1=80436015291649.1.2.3.0 bus2=80435995291649.1.2.3.0 r1=0.975 x1=0.47 length=0.022969 units=km normamps=152.0
new line.52874324 phases=3 bus1=80436125291649.1.2.3.0 bus2=80436115291649.1.2.3.0 r1=0.975 x1=0.47 length=0.030272 units=km normamps=152.0
new line.53144869 phases=3 bus1=82573655291625.1.2.3.0 bus2=82573645291625.1.2.3.0 r1=0.975 x1=0.47 length=0.024584 units=km normamps=152.0
new line.53144890 phases=3 bus1=82573885291626.1.2.3.0 bus2=82573875291626.1.2.3.0 r1=0.613 x1=0.45 length=0.02416 units=km normamps=203.0
new line.53144892 phases=3 bus1=82573905291626.1.2.3.0 bus2=82573895291626.1.2.3.0 r1=0.613 x1=0.45 length=0.011925 units=km normamps=203.0
new line.53144903 phases=3 bus1=82571235291627.1.2.3.0 bus2=82571185291627.1.2.3.0 r1=0.975 x1=0.47 length=0.028134 units=km normamps=152.0
new line.53144904 phases=3 bus1=82571245291627.1.2.3.0 bus2=82571235291627.1.2.3.0 r1=0.975 x1=0.47 length=0.02807 units=km normamps=152.0
new line.53144920 phases=3 bus1=82574235291628.1.2.3.0 bus2=82574225291628.1.2.3.0 r1=0.613 x1=0.45 length=0.024891 units=km normamps=203.0
new line.53144921 phases=3 bus1=82574245291628.1.2.3.0 bus2=82574235291628.1.2.3.0 r1=0.613 x1=0.45 length=0.011969 units=km normamps=203.0
new line.53144923 phases=3 bus1=82574265291628.1.2.3.0 bus2=82574255291628.1.2.3.0 r1=0.613 x1=0.45 length=0.025228 units=km normamps=203.0
new line.53144932 phases=3 bus1=82574345291628.1.2.3.0 bus2=82574335291628.1.2.3.0 r1=0.975 x1=0.47 length=0.030082 units=km normamps=152.0
new line.53144933 phases=3 bus1=82574355291628.1.2.3.0 bus2=82574345291628.1.2.3.0 r1=0.975 x1=0.47 length=0.036138 units=km normamps=152.0
new line.53144937 phases=3 bus1=82574415291628.1.2.3.0 bus2=82574405291628.1.2.3.0 r1=0.975 x1=0.47 length=0.034037 units=km normamps=152.0
new line.53144942 phases=3 bus1=82575135291628.1.2.3.0 bus2=82574465291628.1.2.3.0 r1=0.975 x1=0.47 length=0.015096 units=km normamps=152.0
new line.53144948 phases=3 bus1=82577265291629.1.2.3.0 bus2=82577275291629.1.2.3.0 r1=0.975 x1=0.47 length=0.037221 units=km normamps=152.0
new line.53144956 phases=3 bus1=82577345291629.1.2.3.0 bus2=82577335291629.1.2.3.0 r1=0.975 x1=0.47 length=0.02716 units=km normamps=152.0
new line.53144966 phases=3 bus1=82576525291629.1.2.3.0 bus2=82576515291629.1.2.3.0 r1=0.975 x1=0.47 length=0.040606 units=km normamps=152.0
new line.53144967 phases=3 bus1=82576535291629.1.2.3.0 bus2=82576525291629.1.2.3.0 r1=0.975 x1=0.47 length=0.016361 units=km normamps=152.0
new line.53144972 phases=3 bus1=82576585291629.1.2.3.0 bus2=82576575291629.1.2.3.0 r1=0.975 x1=0.47 length=0.010528 units=km normamps=152.0
new line.53144973 phases=3 bus1=82576615291629.2.3.0 bus2=82576525291629.2.3.0 r1=0.975 x1=0.47 length=0.017298 units=km normamps=152.0
new line.53144980 phases=3 bus1=82573025291630.1.2.3.0 bus2=82573015291630.1.2.3.0 r1=0.613 x1=0.45 length=0.01087 units=km normamps=203.0
new line.53144982 phases=3 bus1=82573045291630.1.2.3.0 bus2=82573025291630.1.2.3.0 r1=0.975 x1=0.47 length=0.013908 units=km normamps=152.0
new line.53144983 phases=3 bus1=82573055291630.1.2.3.0 bus2=82573045291630.1.2.3.0 r1=0.975 x1=0.47 length=0.030914 units=km normamps=152.0
new line.53144984 phases=3 bus1=82573065291630.1.2.3.0 bus2=82573055291630.1.2.3.0 r1=0.975 x1=0.47 length=0.041405 units=km normamps=152.0
new line.53144989 phases=3 bus1=82573115291630.1.2.3.0 bus2=82573105291630.1.2.3.0 r1=0.991 x1=0.1 length=0.044549 units=km normamps=100.0
new line.53145001 phases=3 bus1=82570915291630.1.2.3.0 bus2=82570905291630.1.2.3.0 r1=0.975 x1=0.47 length=0.027816 units=km normamps=152.0
new line.53145004 phases=3 bus1=82570945291630.1.2.3.0 bus2=82570935291630.1.2.3.0 r1=0.975 x1=0.47 length=0.036022 units=km normamps=152.0
new line.53145008 phases=3 bus1=82570985291630.1.2.3.0 bus2=82570975291630.1.2.3.0 r1=0.975 x1=0.47 length=0.041131 units=km normamps=152.0
new line.53145012 phases=3 bus1=82576815291633.1.2.3.0 bus2=82576825291633.1.2.3.0 r1=0.613 x1=0.45 length=0.037534 units=km normamps=203.0
new line.53145034 phases=3 bus1=82576785291633.1.2.3.0 bus2=82576805291633.1.2.3.0 r1=0.613 x1=0.45 length=0.035433 units=km normamps=203.0
new line.53145040 phases=3 bus1=82577235291635.1.2.3.0 bus2=82576725291635.1.2.3.0 r1=0.613 x1=0.45 length=0.027621 units=km normamps=203.0
new line.53145042 phases=3 bus1=82576695291635.1.2.3.0 bus2=82576705291635.1.2.3.0 r1=0.975 x1=0.47 length=0.023773 units=km normamps=152.0
new line.53145043 phases=3 bus1=82576705291635.1.2.3.0 bus2=82576715291635.1.2.3.0 r1=0.975 x1=0.47 length=0.046284 units=km normamps=152.0
new line.53145045 phases=3 bus1=82576725291635.1.2.3.0 bus2=82576735291635.1.2.3.0 r1=0.613 x1=0.45 length=0.031946 units=km normamps=203.0
new line.53145049 phases=3 bus1=82574135291636.1.2.3.0 bus2=82574125291636.1.2.3.0 r1=0.975 x1=0.47 length=0.040855 units=km normamps=152.0
new line.53145053 phases=3 bus1=82574385291636.1.2.3.0 bus2=82574365291636.1.2.3.0 r1=0.975 x1=0.47 length=0.008592 units=km normamps=152.0
new line.53145059 phases=3 bus1=82571345291636.1.2.3.0 bus2=82571335291636.1.2.3.0 r1=0.613 x1=0.45 length=0.025317 units=km normamps=203.0
new line.53145061 phases=3 bus1=82571345291636.1.2.3.0 bus2=82573665291636.1.2.3.0 r1=0.975 x1=0.47 length=0.029931 units=km normamps=152.0
new line.53145070 phases=3 bus1=82573175291637.1.2.3.0 bus2=82573155291637.1.2.3.0 r1=0.613 x1=0.45 length=0.015194 units=km normamps=203.0
new line.53145071 phases=3 bus1=82573185291637.1.2.3.0 bus2=82573175291637.1.2.3.0 r1=0.613 x1=0.45 length=0.032545 units=km normamps=203.0
new line.53145072 phases=3 bus1=82573195291637.1.2.3.0 bus2=82573185291637.1.2.3.0 r1=0.613 x1=0.45 length=0.027335 units=km normamps=203.0
new line.53145076 phases=3 bus1=82575645291637.1.2.3.0 bus2=82575655291637.1.2.3.0 r1=0.975 x1=0.47 length=0.029477 units=km normamps=152.0
new line.53145080 phases=3 bus1=82573225291638.1.2.3.0 bus2=82573205291638.1.2.3.0 r1=0.506 x1=0.1 length=0.030917 units=km normamps=157.0
new line.53145096 phases=3 bus1=82576605291638.1.2.3.0 bus2=82576595291638.1.2.3.0 r1=0.991 x1=0.1 length=0.02416 units=km normamps=100.0
new line.53145099 phases=3 bus1=82573335291639.1.2.3.0 bus2=82573325291639.1.2.3.0 r1=0.975 x1=0.47 length=0.018292 units=km normamps=152.0
new line.53145107 phases=3 bus1=82573415291639.1.2.3.0 bus2=82573405291639.1.2.3.0 r1=0.975 x1=0.47 length=0.031756 units=km normamps=152.0
new line.53145118 phases=3 bus1=82573815291639.1.2.3.0 bus2=82573805291639.1.2.3.0 r1=0.975 x1=0.47 length=0.009427 units=km normamps=152.0
new line.53145119 phases=3 bus1=82573825291639.1.2.3.0 bus2=82573815291639.1.2.3.0 r1=0.975 x1=0.47 length=0.021571 units=km normamps=152.0
new line.53145126 phases=3 bus1=82571155291630.1.2.3.0 bus2=82571135291630.1.2.3.0 r1=0.975 x1=0.47 length=0.021324 units=km normamps=152.0
new line.53145130 phases=3 bus1=82570955291630.1.2.3.0 bus2=82571275291630.1.2.3.0 r1=0.975 x1=0.47 length=0.013089 units=km normamps=152.0
new line.53145138 phases=3 bus1=82574975291632.1.2.3.0 bus2=82574985291632.1.2.3.0 r1=0.506 x1=0.1 length=0.03977 units=km normamps=157.0
new line.53145159 phases=3 bus1=82580105722481.1.2.3.0 bus2=82580085722481.1.2.3.0 r1=0.991 x1=0.1 length=0.031284 units=km normamps=100.0
new line.53145161 phases=3 bus1=82580125722481.1.2.3.0 bus2=82580105722481.1.2.3.0 r1=0.991 x1=0.1 length=0.027779 units=km normamps=100.0
new line.53145165 phases=3 bus1=82580105722481.1.2.3.0 bus2=82580165722481.1.2.3.0 r1=0.991 x1=0.1 length=0.034425 units=km normamps=100.0
new line.53145170 phases=3 bus1=82573845291639.1.2.3.0 bus2=82573805291639.1.2.3.0 r1=0.975 x1=0.47 length=0.011925 units=km normamps=152.0
new line.53145173 phases=3 bus1=82573355291639.1.2.3.0 bus2=82573855291639.1.2.3.0 r1=0.975 x1=0.47 length=0.02334 units=km normamps=152.0
new line.53145180 phases=3 bus1=82574685291640.1.2.3.0 bus2=82574715291640.1.2.3.0 r1=0.975 x1=0.47 length=0.033495 units=km normamps=152.0
new line.53145190 phases=3 bus1=82577505291641.1.2.3.0 bus2=82577515291641.1.2.3.0 r1=0.613 x1=0.45 length=0.028131 units=km normamps=203.0
new line.53145191 phases=3 bus1=82577515291641.1.2.3.0 bus2=82577525291641.1.2.3.0 r1=0.975 x1=0.47 length=0.038928 units=km normamps=152.0
new line.53145201 phases=3 bus1=82577665291641.1.2.3.0 bus2=82577675291641.1.2.3.0 r1=1.551 x1=0.49 length=0.017473 units=km normamps=114.0
...